29
Frame number 0 time 0.0 fs boxsize    7.4671832304    7.4671832304    7.4671832304      0.000000   5.280096   5.280096  5.280096   0.000000   5.280096  5.280096   5.280096   0.000000
C     2.9239145146    5.2800958986    5.28009589860
C     7.6362772826    5.2800958986    5.28009589861
C     5.2800958986    2.9239145146    5.28009589862
C     5.2800958986    7.6362772826    5.28009589863
C     5.2800958986    5.2800958986    2.92391451464
C     5.2800958986    5.2800958986    7.63627728265
Cr     0.0000000000    0.0000000000    0.00000000006
Cr     2.6400479493    2.6400479493    2.64004794937
Cr     7.9201438479    7.9201438479    7.92014384798
Cr     4.0245730706    4.0245730706    4.02457307069
Cr     6.5356187266    6.5356187266    4.024573070610
Cr     6.5356187266    4.0245730706    6.535618726611
Cr     4.0245730706    6.5356187266    6.535618726612
Cr     6.5356187266    6.5356187266    6.535618726613
Cr     4.0245730706    4.0245730706    6.535618726614
Cr     4.0245730706    6.5356187266    4.024573070615
Cr     6.5356187266    4.0245730706    4.024573070616
Cr     0.0000000000    1.7918652778    1.791865277817
Cr     5.2800958986    3.4882306208    1.791865277818
Cr     5.2800958986    1.7918652778    3.488230620819
Cr     0.0000000000    3.4882306208    3.488230620820
Cr     1.7918652778    1.7918652778    0.000000000021
Cr     3.4882306208    1.7918652778    5.280095898622
Cr     1.7918652778    3.4882306208    5.280095898623
Cr     3.4882306208    3.4882306208    0.000000000024
Cr     1.7918652778    0.0000000000    1.791865277825
Cr     1.7918652778    5.2800958986    3.488230620826
Cr     3.4882306208    5.2800958986    1.791865277827
Cr     3.4882306208    0.0000000000    3.488230620828
