20
Frame number 0 time 0.0 fs boxsize   11.4888857733    5.4924310373    2.7937120310     11.488886   0.000000   0.000000  0.000000   5.492431   0.000000  0.000000   0.000000   2.793712
C     2.3320168371    0.5379873067    0.69842800770
C    10.9342920631    1.3088920772    0.69842800771
C     9.1568689362    4.9544437306    2.09528402302
C     0.5545937102    4.1835389601    2.09528402303
C     3.4124260496    3.2842028261    0.69842800774
C     6.2990365969    4.0551075955    0.69842800775
C     8.0764597237    2.2082282116    2.09528402306
C     5.1898491764    1.4373234410    2.09528402307
Cr     4.6353475802    0.0885049826    0.69842800778
Cr     8.8898062164    1.0265205004    0.69842800779
Cr    10.7000859436    4.7658978753    0.698428007710
Cr     6.8535381931    5.4039260547    2.095284023011
Cr     2.5990795569    4.4659105369    2.095284023012
Cr     0.7887998297    0.7265331620    2.095284023013
Cr     1.1090953064    2.8347205008    0.698428007714
Cr     8.3435224435    3.7727360198    0.698428007715
Cr     6.5332427163    2.0196823563    0.698428007716
Cr    10.3797904669    2.6577105368    2.095284023017
Cr     3.1453633298    1.7196950178    2.095284023018
Cr     4.9556430570    3.4727486802    2.095284023019
