128
Frame number 1 0.0 fs boxsize  11.5600000000  11.5600000000  11.5600000000
Fe -5.0575 -5.0575 -5.0575 1  1
Fe -3.6125 -3.6125 -3.6125 1  1
Fe -5.0575 -5.0575 -2.1675 1  1
Fe -3.6125 -3.6125 -0.7225 1  1
Fe -5.0575 -5.0575 0.7225 1  1
Fe -3.6125 -3.6125 2.1675 1  1
Fe -5.0575 -5.0575 3.6125 1  1
Fe -3.6125 -3.6125 5.0575 1  1
Cr -5.0575 -2.1675 -5.0575 2  2
Fe -3.6125 -0.7225 -3.6125 1  1
Fe -5.0575 -2.1675 -2.1675 1  1
Cr -3.6125 -0.7225 -0.7225 2  2
Fe -5.0575 -2.1675 0.7225 1  1
Fe -3.6125 -0.7225 2.1675 1  1
Fe -5.0575 -2.1675 3.6125 1  1
Fe -3.6125 -0.7225 5.0575 1  1
Fe -5.0575 0.7225 -5.0575 1  1
Fe -3.6125 2.1675 -3.6125 1  1
Cr -5.0575 0.7225 -2.1675 2  2
Fe -3.6125 2.1675 -0.7225 1  1
Fe -5.0575 0.7225 0.7225 1  1
Fe -3.6125 2.1675 2.1675 1  1
Cr -5.0575 0.7225 3.6125 2  2
Fe -3.6125 2.1675 5.0575 1  1
Fe -5.0575 3.6125 -5.0575 1  1
Fe -3.6125 5.0575 -3.6125 1  1
Cr -5.0575 3.6125 -2.1675 2  2
Fe -3.6125 5.0575 -0.7225 1  1
Fe -5.0575 3.6125 0.7225 1  1
Fe -3.6125 5.0575 2.1675 1  1
Fe -5.0575 3.6125 3.6125 1  1
Fe -3.6125 5.0575 5.0575 1  1
Cr -2.1675 -5.0575 -5.0575 2  2
Fe -0.7225 -3.6125 -3.6125 1  1
Fe -2.1675 -5.0575 -2.1675 1  1
Cr -0.7225 -3.6125 -0.7225 2  2
Fe -2.1675 -5.0575 0.7225 1  1
Fe -0.7225 -3.6125 2.1675 1  1
Cr -2.1675 -5.0575 3.6125 2  2
Fe -0.7225 -3.6125 5.0575 1  1
Fe -2.1675 -2.1675 -5.0575 1  1
Cr -0.7225 -0.7225 -3.6125 2  2
Fe -2.1675 -2.1675 -2.1675 1  1
Fe -0.7225 -0.7225 -0.7225 1  1
Fe -2.1675 -2.1675 0.7225 1  1
Fe -0.7225 -0.7225 2.1675 1  1
Cr -2.1675 -2.1675 3.6125 2  2
Fe -0.7225 -0.7225 5.0575 1  1
Cr -2.1675 0.7225 -5.0575 2  2
Fe -0.7225 2.1675 -3.6125 1  1
Fe -2.1675 0.7225 -2.1675 1  1
Fe -0.7225 2.1675 -0.7225 1  1
Fe -2.1675 0.7225 0.7225 1  1
Fe -0.7225 2.1675 2.1675 1  1
Cr -2.1675 0.7225 3.6125 2  2
Fe -0.7225 2.1675 5.0575 1  1
Fe -2.1675 3.6125 -5.0575 1  1
Fe -0.7225 5.0575 -3.6125 1  1
Fe -2.1675 3.6125 -2.1675 1  1
Fe -0.7225 5.0575 -0.7225 1  1
Fe -2.1675 3.6125 0.7225 1  1
Fe -0.7225 5.0575 2.1675 1  1
Fe -2.1675 3.6125 3.6125 1  1
Fe -0.7225 5.0575 5.0575 1  1
Fe 0.7225 -5.0575 -5.0575 1  1
Cr 2.1675 -3.6125 -3.6125 2  2
Fe 0.7225 -5.0575 -2.1675 1  1
Fe 2.1675 -3.6125 -0.7225 1  1
Cr 0.7225 -5.0575 0.7225 2  2
Cr 2.1675 -3.6125 2.1675 2  2
Fe 0.7225 -5.0575 3.6125 1  1
Cr 2.1675 -3.6125 5.0575 2  2
Fe 0.7225 -2.1675 -5.0575 1  1
Cr 2.1675 -0.7225 -3.6125 2  2
Fe 0.7225 -2.1675 -2.1675 1  1
Fe 2.1675 -0.7225 -0.7225 1  1
Fe 0.7225 -2.1675 0.7225 1  1
Fe 2.1675 -0.7225 2.1675 1  1
Cr 0.7225 -2.1675 3.6125 2  2
Fe 2.1675 -0.7225 5.0575 1  1
Fe 0.7225 0.7225 -5.0575 1  1
Fe 2.1675 2.1675 -3.6125 1  1
Fe 0.7225 0.7225 -2.1675 1  1
Fe 2.1675 2.1675 -0.7225 1  1
Fe 0.7225 0.7225 0.7225 1  1
Fe 2.1675 2.1675 2.1675 1  1
Cr 0.7225 0.7225 3.6125 2  2
Fe 2.1675 2.1675 5.0575 1  1
Fe 0.7225 3.6125 -5.0575 1  1
Fe 2.1675 5.0575 -3.6125 1  1
Fe 0.7225 3.6125 -2.1675 1  1
Fe 2.1675 5.0575 -0.7225 1  1
Fe 0.7225 3.6125 0.7225 1  1
Fe 2.1675 5.0575 2.1675 1  1
Fe 0.7225 3.6125 3.6125 1  1
Fe 2.1675 5.0575 5.0575 1  1
Fe 3.6125 -5.0575 -5.0575 1  1
Fe 5.0575 -3.6125 -3.6125 1  1
Fe 3.6125 -5.0575 -2.1675 1  1
Fe 5.0575 -3.6125 -0.7225 1  1
Fe 3.6125 -5.0575 0.7225 1  1
Fe 5.0575 -3.6125 2.1675 1  1
Fe 3.6125 -5.0575 3.6125 1  1
Fe 5.0575 -3.6125 5.0575 1  1
Fe 3.6125 -2.1675 -5.0575 1  1
Fe 5.0575 -0.7225 -3.6125 1  1
Fe 3.6125 -2.1675 -2.1675 1  1
Fe 5.0575 -0.7225 -0.7225 1  1
Fe 3.6125 -2.1675 0.7225 1  1
Fe 5.0575 -0.7225 2.1675 1  1
Cr 3.6125 -2.1675 3.6125 2  2
Cr 5.0575 -0.7225 5.0575 2  2
Fe 3.6125 0.7225 -5.0575 1  1
Fe 5.0575 2.1675 -3.6125 1  1
Fe 3.6125 0.7225 -2.1675 1  1
Fe 5.0575 2.1675 -0.7225 1  1
Cr 3.6125 0.7225 0.7225 2  2
Fe 5.0575 2.1675 2.1675 1  1
Fe 3.6125 0.7225 3.6125 1  1
Fe 5.0575 2.1675 5.0575 1  1
Cr 3.6125 3.6125 -5.0575 2  2
Fe 5.0575 5.0575 -3.6125 1  1
Fe 3.6125 3.6125 -2.1675 1  1
Fe 5.0575 5.0575 -0.7225 1  1
Fe 3.6125 3.6125 0.7225 1  1
Fe 5.0575 5.0575 2.1675 1  1
Fe 3.6125 3.6125 3.6125 1  1
Fe 5.0575 5.0575 5.0575 1  1
